src/cases/Case3/case3_with_inv_load_x2/feeder_outputs/IEEE123Loads.DSS
! -------------------------------------------------
!  LoadShape definition (unchanged)
! -------------------------------------------------
New LoadShape.microgrid1a interval=1 npts=2 useactual=no mult=(1.0, 1.0)

! -------------------------------------------------
!  LOAD DEFINITIONS
! -------------------------------------------------
!
! Note that 1-phase loads have a voltage rating = to actual voltage across terminals
! This could be either 2.4kV for Wye connection or 4.16 kV for Delta or Line-Line connection.
! 3-phase loads are rated Line-Line (as are 2-phase loads, but there are none in this case).
! Only the balanced 3-phase loads are declared as 3-phase; unbalanced 3-phase loads are declared
! as three 1-phase loads.

New Load.S1a   Bus1=1d.1    Phases=1 daily=microgrid1a Conn=Wye Vminpu=0.8 Vmaxpu=1.2   Model=1 kV=2.4   kW=40.0  kvar=20.0  
New Load.S2b   Bus1=2d.2    Phases=1 daily=microgrid1a Conn=Wye Vminpu=0.8 Vmaxpu=1.2   Model=1 kV=2.4   kW=20.0  kvar=10.0  
New Load.S4c   Bus1=4d.3    Phases=1 daily=microgrid1a Conn=Wye Vminpu=0.8 Vmaxpu=1.2   Model=1 kV=2.4   kW=40.0  kvar=20.0  
New Load.S5c   Bus1=5d.3    Phases=1 daily=microgrid1a Conn=Wye Vminpu=0.8 Vmaxpu=1.2   Model=5 kV=2.4   kW=20.0  kvar=10.0  
New Load.S6c   Bus1=6d.3    Phases=1 daily=microgrid1a Conn=Wye Vminpu=0.8 Vmaxpu=1.2   Model=2 kV=2.4   kW=40.0  kvar=20.0  
New Load.S7a   Bus1=7d.1    Phases=1 daily=microgrid1a Conn=Wye Vminpu=0.8 Vmaxpu=1.2   Model=1 kV=2.4   kW=20.0  kvar=10.0  
New Load.S9a   Bus1=9d.1    Phases=1 daily=microgrid1a Conn=Wye Vminpu=0.8 Vmaxpu=1.2   Model=1 kV=2.4   kW=40.0  kvar=20.0  
New Load.S10a  Bus1=10d.1   Phases=1 daily=microgrid1a Conn=Wye Vminpu=0.8 Vmaxpu=1.2   Model=5 kV=2.4   kW=20.0  kvar=10.0  
New Load.S11a  Bus1=11d.1   Phases=1 daily=microgrid1a Conn=Wye Vminpu=0.8 Vmaxpu=1.2   Model=2 kV=2.4   kW=40.0  kvar=20.0  
New Load.S12b  Bus1=12d.2   Phases=1 daily=microgrid1a Conn=Wye Vminpu=0.8 Vmaxpu=1.2   Model=1 kV=2.4   kW=20.0  kvar=10.0  
New Load.S16c  Bus1=16d.3   Phases=1 daily=microgrid1a Conn=Wye Vminpu=0.8 Vmaxpu=1.2   Model=1 kV=2.4   kW=40.0  kvar=20.0  
New Load.S17c  Bus1=17d.3   Phases=1 daily=microgrid1a Conn=Wye Vminpu=0.8 Vmaxpu=1.2   Model=1 kV=2.4   kW=20.0  kvar=10.0  
New Load.S19a  Bus1=19d.1   Phases=1 daily=microgrid1a Conn=Wye Vminpu=0.8 Vmaxpu=1.2   Model=1 kV=2.4   kW=40.0  kvar=20.0  
New Load.S20a  Bus1=20d.1   Phases=1 daily=microgrid1a Conn=Wye Vminpu=0.8 Vmaxpu=1.2   Model=5 kV=2.4   kW=40.0  kvar=20.0  
New Load.S22b  Bus1=22d.2   Phases=1 daily=microgrid1a Conn=Wye Vminpu=0.8 Vmaxpu=1.2   Model=2 kV=2.4   kW=40.0  kvar=20.0  
New Load.S24c  Bus1=24d.3   Phases=1 daily=microgrid1a Conn=Wye Vminpu=0.8 Vmaxpu=1.2   Model=1 kV=2.4   kW=40.0  kvar=20.0  
New Load.S28a  Bus1=28d.1   Phases=1 daily=microgrid1a Conn=Wye Vminpu=0.8 Vmaxpu=1.2   Model=5 kV=2.4   kW=40.0  kvar=20.0  
New Load.S29a  Bus1=29d.1   Phases=1 daily=microgrid1a Conn=Wye Vminpu=0.8 Vmaxpu=1.2   Model=2 kV=2.4   kW=40.0  kvar=20.0  
New Load.S30c  Bus1=30d.3   Phases=1 daily=microgrid1a Conn=Wye Vminpu=0.8 Vmaxpu=1.2   Model=1 kV=2.4   kW=40.0  kvar=20.0  
New Load.S31c  Bus1=31d.3   Phases=1 daily=microgrid1a Conn=Wye Vminpu=0.8 Vmaxpu=1.2   Model=1 kV=2.4   kW=20.0  kvar=10.0  
New Load.S32c  Bus1=32d.3   Phases=1 daily=microgrid1a Conn=Wye Vminpu=0.8 Vmaxpu=1.2   Model=1 kV=2.4   kW=20.0  kvar=10.0  
New Load.S33a  Bus1=33d.1   Phases=1 daily=microgrid1a Conn=Wye Vminpu=0.8 Vmaxpu=1.2   Model=5 kV=2.4   kW=40.0  kvar=20.0  
New Load.S34c  Bus1=34d.3   Phases=1 daily=microgrid1a Conn=Wye Vminpu=0.8 Vmaxpu=1.2   Model=2 kV=2.4   kW=40.0  kvar=20.0  
New Load.S35a  Bus1=35d.1.2 Phases=1 daily=microgrid1a Conn=Delta Vminpu=0.8 Vmaxpu=1.2 Model=1 kV=4.160 kW=40.0  kvar=20.0  
New Load.S37a  Bus1=37d.1   Phases=1 daily=microgrid1a Conn=Wye Vminpu=0.8 Vmaxpu=1.2   Model=2 kV=2.4   kW=40.0  kvar=20.0  
New Load.S38b  Bus1=38d.2   Phases=1 daily=microgrid1a Conn=Wye Vminpu=0.8 Vmaxpu=1.2   Model=5 kV=2.4   kW=20.0  kvar=10.0  
New Load.S39b  Bus1=39d.2   Phases=1 daily=microgrid1a Conn=Wye Vminpu=0.8 Vmaxpu=1.2   Model=1 kV=2.4   kW=20.0  kvar=10.0  
New Load.S41c  Bus1=41d.3   Phases=1 daily=microgrid1a Conn=Wye Vminpu=0.8 Vmaxpu=1.2   Model=1 kV=2.4   kW=20.0  kvar=10.0  
New Load.S42a  Bus1=42d.1   Phases=1 daily=microgrid1a Conn=Wye Vminpu=0.8 Vmaxpu=1.2   Model=1 kV=2.4   kW=20.0  kvar=10.0  
New Load.S43b  Bus1=43d.2   Phases=1 daily=microgrid1a Conn=Wye Vminpu=0.8 Vmaxpu=1.2   Model=2 kV=2.4   kW=40.0  kvar=20.0  
New Load.S45a  Bus1=45d.1   Phases=1 daily=microgrid1a Conn=Wye Vminpu=0.8 Vmaxpu=1.2   Model=5 kV=2.4   kW=20.0  kvar=10.0  
New Load.S46a  Bus1=46d.1   Phases=1 daily=microgrid1a Conn=Wye Vminpu=0.8 Vmaxpu=1.2   Model=1 kV=2.4   kW=20.0  kvar=10.0  
New Load.S47   Bus1=47d     Phases=3 daily=microgrid1a Conn=Wye Vminpu=0.8 Vmaxpu=1.2   Model=5 kV=4.160 kW=105.0 kvar=75.0  
New Load.S48   Bus1=48d     Phases=3 daily=microgrid1a Conn=Wye Vminpu=0.8 Vmaxpu=1.2   Model=2 kV=4.160 kW=210.0 kVAR=150.0 
New Load.S49a  Bus1=49d.1   Phases=1 daily=microgrid1a Conn=Wye Vminpu=0.8 Vmaxpu=1.2   Model=1 kV=2.4   kW=35.0  kvar=25.0  
New Load.S49b  Bus1=49d.2   Phases=1 daily=microgrid1a Conn=Wye Vminpu=0.8 Vmaxpu=1.2   Model=1 kV=2.4   kW=70.0  kvar=50.0  
New Load.S49c  Bus1=49d.3   Phases=1 daily=microgrid1a Conn=Wye Vminpu=0.8 Vmaxpu=1.2   Model=1 kV=2.4   kW=35.0  kvar=20.0  ! used to be 25 in on-line document
New Load.S50c  Bus1=50d.3   Phases=1 daily=microgrid1a Conn=Wye Vminpu=0.8 Vmaxpu=1.2   Model=1 kV=2.4   kW=40.0  kvar=20.0  
New Load.S51a  Bus1=51d.1   Phases=1 daily=microgrid1a Conn=Wye Vminpu=0.8 Vmaxpu=1.2   Model=1 kV=2.4   kW=20.0  kvar=10.0  
New Load.S52a  Bus1=52d.1   Phases=1 daily=microgrid1a Conn=Wye Vminpu=0.8 Vmaxpu=1.2   Model=1 kV=2.4   kW=40.0  kvar=20.0  
New Load.S53a  Bus1=53d.1   Phases=1 daily=microgrid1a Conn=Wye Vminpu=0.8 Vmaxpu=1.2   Model=1 kV=2.4   kW=40.0  kvar=20.0  
New Load.S55a  Bus1=55d.1   Phases=1 daily=microgrid1a Conn=Wye Vminpu=0.8 Vmaxpu=1.2   Model=2 kV=2.4   kW=20.0  kvar=10.0  
New Load.S56b  Bus1=56d.2   Phases=1 daily=microgrid1a Conn=Wye Vminpu=0.8 Vmaxpu=1.2   Model=1 kV=2.4   kW=20.0  kvar=10.0  
New Load.S58b  Bus1=58d.2   Phases=1 daily=microgrid1a Conn=Wye Vminpu=0.8 Vmaxpu=1.2   Model=5 kV=2.4   kW=20.0  kvar=10.0  
New Load.S59b  Bus1=59d.2   Phases=1 daily=microgrid1a Conn=Wye Vminpu=0.8 Vmaxpu=1.2   Model=1 kV=2.4   kW=20.0  kvar=10.0  
New Load.S60a  Bus1=60d.1   Phases=1 daily=microgrid1a Conn=Wye Vminpu=0.8 Vmaxpu=1.2   Model=1 kV=2.4   kW=20.0  kvar=10.0  
New Load.S62c  Bus1=62d.3   Phases=1 daily=microgrid1a Conn=Wye Vminpu=0.8 Vmaxpu=1.2   Model=2 kV=2.4   kW=40.0  kvar=20.0  
New Load.S63a  Bus1=63d.1   Phases=1 daily=microgrid1a Conn=Wye Vminpu=0.8 Vmaxpu=1.2   Model=1 kV=2.4   kW=40.0  kvar=20.0  
New Load.S64b  Bus1=64d.2   Phases=1 daily=microgrid1a Conn=Wye Vminpu=0.8 Vmaxpu=1.2   Model=5 kV=2.4   kW=75.0  kvar=35.0  
New Load.S65a  Bus1=65d.1.2 Phases=1 daily=microgrid1a Conn=Delta Vminpu=0.8 Vmaxpu=1.2 Model=2 kV=4.160 kW=35.0  kvar=25.0  
New Load.S65b  Bus1=65d.2.3 Phases=1 daily=microgrid1a Conn=Delta Vminpu=0.8 Vmaxpu=1.2 Model=2 kV=4.160 kW=35.0  kvar=25.0  
New Load.S65c  Bus1=65d.3.1 Phases=1 daily=microgrid1a Conn=Delta Vminpu=0.8 Vmaxpu=1.2 Model=2 kV=4.160 kW=70.0  kvar=50.0  
New Load.S66c  Bus1=66d.3   Phases=1 daily=microgrid1a Conn=Wye Vminpu=0.8 Vmaxpu=1.2   Model=1 kV=2.4   kW=75.0  kvar=35.0  
New Load.S68a  Bus1=68d.1   Phases=1 daily=microgrid1a Conn=Wye Vminpu=0.8 Vmaxpu=1.2   Model=1 kV=2.4   kW=20.0  kvar=10.0  
New Load.S69a  Bus1=69d.1   Phases=1 daily=microgrid1a Conn=Wye Vminpu=0.8 Vmaxpu=1.2   Model=1 kV=2.4   kW=40.0  kvar=20.0  
New Load.S70a  Bus1=70d.1   Phases=1 daily=microgrid1a Conn=Wye Vminpu=0.8 Vmaxpu=1.2   Model=1 kV=2.4   kW=20.0  kvar=10.0  
New Load.S71a  Bus1=71d.1   Phases=1 daily=microgrid1a Conn=Wye Vminpu=0.8 Vmaxpu=1.2   Model=1 kV=2.4   kW=40.0  kvar=20.0  
New Load.S73c  Bus1=73d.3   Phases=1 daily=microgrid1a Conn=Wye Vminpu=0.8 Vmaxpu=1.2   Model=1 kV=2.4   kW=40.0  kvar=20.0  
New Load.S74c  Bus1=74d.3   Phases=1 daily=microgrid1a Conn=Wye Vminpu=0.8 Vmaxpu=1.2   Model=2 kV=2.4   kW=40.0  kvar=20.0  
New Load.S75c  Bus1=75d.3   Phases=1 daily=microgrid1a Conn=Wye Vminpu=0.8 Vmaxpu=1.2   Model=1 kV=2.4   kW=40.0  kvar=20.0  
New Load.S76a  Bus1=76d.1.2 Phases=1 daily=microgrid1a Conn=Delta Vminpu=0.8 Vmaxpu=1.2 Model=5 kV=4.160 kW=105.0 kvar=80.0  
New Load.S76b  Bus1=76d.2.3 Phases=1 daily=microgrid1a Conn=Delta Vminpu=0.8 Vmaxpu=1.2 Model=5 kV=4.160 kW=70.0  kvar=50.0  
New Load.S76c  Bus1=76d.3.1 Phases=1 daily=microgrid1a Conn=Delta Vminpu=0.8 Vmaxpu=1.2 Model=5 kV=4.160 kW=70.0  kvar=50.0  
New Load.S77b  Bus1=77d.2   Phases=1 daily=microgrid1a Conn=Wye Vminpu=0.8 Vmaxpu=1.2   Model=1 kV=2.4   kW=40.0  kvar=20.0  
New Load.S79a  Bus1=79d.1   Phases=1 daily=microgrid1a Conn=Wye Vminpu=0.8 Vmaxpu=1.2   Model=2 kV=2.4   kW=40.0  kvar=20.0  
New Load.S80b  Bus1=80d.2   Phases=1 daily=microgrid1a Conn=Wye Vminpu=0.8 Vmaxpu=1.2   Model=1 kV=2.4   kW=40.0  kvar=20.0  
New Load.S82a  Bus1=82d.1   Phases=1 daily=microgrid1a Conn=Wye Vminpu=0.8 Vmaxpu=1.2   Model=1 kV=2.4   kW=40.0  kvar=20.0  
New Load.S83c  Bus1=83d.3   Phases=1 daily=microgrid1a Conn=Wye Vminpu=0.8 Vmaxpu=1.2   Model=1 kV=2.4   kW=20.0  kvar=10.0  
New Load.S84c  Bus1=84d.3   Phases=1 daily=microgrid1a Conn=Wye Vminpu=0.8 Vmaxpu=1.2   Model=1 kV=2.4   kW=20.0  kvar=10.0  
New Load.S85c  Bus1=85d.3   Phases=1 daily=microgrid1a Conn=Wye Vminpu=0.8 Vmaxpu=1.2   Model=1 kV=2.4   kW=40.0  kvar=20.0  
New Load.S86b  Bus1=86d.2   Phases=1 daily=microgrid1a Conn=Wye Vminpu=0.8 Vmaxpu=1.2   Model=1 kV=2.4   kW=20.0  kvar=10.0  
New Load.S87b  Bus1=87d.2   Phases=1 daily=microgrid1a Conn=Wye Vminpu=0.8 Vmaxpu=1.2   Model=1 kV=2.4   kW=40.0  kvar=20.0  
New Load.S88a  Bus1=88d.1   Phases=1 daily=microgrid1a Conn=Wye Vminpu=0.8 Vmaxpu=1.2   Model=1 kV=2.4   kW=40.0  kvar=20.0  
New Load.S90b  Bus1=90d.2   Phases=1 daily=microgrid1a Conn=Wye Vminpu=0.8 Vmaxpu=1.2   Model=5 kV=2.4   kW=40.0  kvar=20.0  
New Load.S92c  Bus1=92d.3   Phases=1 daily=microgrid1a Conn=Wye Vminpu=0.8 Vmaxpu=1.2   Model=1 kV=2.4   kW=40.0  kvar=20.0  
New Load.S94a  Bus1=94d.1   Phases=1 daily=microgrid1a Conn=Wye Vminpu=0.8 Vmaxpu=1.2   Model=1 kV=2.4   kW=40.0  kvar=20.0  
New Load.S95b  Bus1=95d.2   Phases=1 daily=microgrid1a Conn=Wye Vminpu=0.8 Vmaxpu=1.2   Model=1 kV=2.4   kW=20.0  kvar=10.0  
New Load.S96b  Bus1=96d.2   Phases=1 daily=microgrid1a Conn=Wye Vminpu=0.8 Vmaxpu=1.2   Model=1 kV=2.4   kW=20.0  kvar=10.0  
New Load.S98a  Bus1=98d.1   Phases=1 daily=microgrid1a Conn=Wye Vminpu=0.8 Vmaxpu=1.2   Model=1 kV=2.4   kW=40.0  kvar=20.0  
New Load.S99b  Bus1=99d.2   Phases=1 daily=microgrid1a Conn=Wye Vminpu=0.8 Vmaxpu=1.2   Model=1 kV=2.4   kW=40.0  kvar=20.0  
New Load.S100c Bus1=100d.3  Phases=1 daily=microgrid1a Conn=Wye Vminpu=0.8 Vmaxpu=1.2   Model=2 kV=2.4   kW=40.0  kvar=20.0  
New Load.S102c Bus1=102d.3  Phases=1 daily=microgrid1a Conn=Wye Vminpu=0.8 Vmaxpu=1.2   Model=1 kV=2.4   kW=20.0  kvar=10.0  
New Load.S103c Bus1=103d.3  Phases=1 daily=microgrid1a Conn=Wye Vminpu=0.8 Vmaxpu=1.2   Model=1 kV=2.4   kW=40.0  kvar=20.0  
New Load.S104c Bus1=104d.3  Phases=1 daily=microgrid1a Conn=Wye Vminpu=0.8 Vmaxpu=1.2   Model=1 kV=2.4   kW=40.0  kvar=20.0  
New Load.S106b Bus1=106d.2  Phases=1 daily=microgrid1a Conn=Wye Vminpu=0.8 Vmaxpu=1.2   Model=1 kV=2.4   kW=40.0  kvar=20.0  
New Load.S107b Bus1=107d.2  Phases=1 daily=microgrid1a Conn=Wye Vminpu=0.8 Vmaxpu=1.2   Model=1 kV=2.4   kW=40.0  kvar=20.0  
New Load.S109a Bus1=109d.1  Phases=1 daily=microgrid1a Conn=Wye Vminpu=0.8 Vmaxpu=1.2   Model=1 kV=2.4   kW=40.0  kvar=20.0  
New Load.S111a Bus1=111d.1  Phases=1 daily=microgrid1a Conn=Wye Vminpu=0.8 Vmaxpu=1.2   Model=1 kV=2.4   kW=20.0  kvar=10.0  
New Load.S112a Bus1=112d.1  Phases=1 daily=microgrid1a Conn=Wye Vminpu=0.8 Vmaxpu=1.2   Model=5 kV=2.4   kW=20.0  kvar=10.0  
New Load.S113a Bus1=113d.1  Phases=1 daily=microgrid1a Conn=Wye Vminpu=0.8 Vmaxpu=1.2   Model=2 kV=2.4   kW=40.0  kvar=20.0  
New Load.S114a Bus1=114d.1  Phases=1 daily=microgrid1a Conn=Wye Vminpu=0.8 Vmaxpu=1.2   Model=1 kV=2.4   kW=20.0  kvar=10.0  
